Circuit: * Lista nodi

Direct Newton iteration for .op point succeeded.

Date: Sat Oct  7 19:52:18 2023
Total elapsed time: 0.012 seconds.

tnom = 27
temp = 27
method = trap
totiter = 3
traniter = 0
tranpoints = 0
accept = 0
rejected = 0
matrix size = 4
fillins = 0
solver = Normal
Avg thread counts: 8.0/0.0/8.0/8.0
Matrix Compiler1: 136 bytes object code size
Matrix Compiler2: 282 bytes object code size
